120
Lattice="12.300000 0.000000 0.000000 0.000000 21.305000 0.000000 0.000000 0.000000 12.042132" Properties=species:S:1:pos:R:3
C 1.230000 0.000000 0.000000
C 0.000000 0.710141 0.000000
C 0.000000 2.130423 0.000000
C 1.230000 2.840563 0.000000
C 1.230000 4.261000 0.000000
C 0.000000 4.971141 0.000000
C 0.000000 6.391423 0.000000
C 1.230000 7.101563 0.000000
C 1.230000 8.522000 0.000000
C 0.000000 9.232141 0.000000
C 0.000000 10.652423 0.000000
C 1.230000 11.362563 0.000000
C 1.230000 12.783000 0.000000
C 0.000000 13.493141 0.000000
C 0.000000 14.913423 0.000000
C 1.230000 15.623563 0.000000
C 1.230000 17.044000 0.000000
C 0.000000 17.754141 0.000000
C 0.000000 19.174423 0.000000
C 1.230000 19.884563 0.000000
C 3.690000 0.000000 0.000000
C 2.460000 0.710141 0.000000
C 2.460000 2.130423 0.000000
C 3.690000 2.840563 0.000000
C 3.690000 4.261000 0.000000
C 2.460000 4.971141 0.000000
C 2.460000 6.391423 0.000000
C 3.690000 7.101563 0.000000
C 3.690000 8.522000 0.000000
C 2.460000 9.232141 0.000000
C 2.460000 10.652423 0.000000
C 3.690000 11.362563 0.000000
C 3.690000 12.783000 0.000000
C 2.460000 13.493141 0.000000
C 2.460000 14.913423 0.000000
C 3.690000 15.623563 0.000000
C 3.690000 17.044000 0.000000
C 2.460000 17.754141 0.000000
C 2.460000 19.174423 0.000000
C 3.690000 19.884563 0.000000
C 6.150000 0.000000 0.000000
C 4.920000 0.710141 0.000000
C 4.920000 2.130423 0.000000
C 6.150000 2.840563 0.000000
C 6.150000 4.261000 0.000000
C 4.920000 4.971141 0.000000
C 4.920000 6.391423 0.000000
C 6.150000 7.101563 0.000000
C 6.150000 8.522000 0.000000
C 4.920000 9.232141 0.000000
C 4.920000 10.652423 0.000000
C 6.150000 11.362563 0.000000
C 6.150000 12.783000 0.000000
C 4.920000 13.493141 0.000000
C 4.920000 14.913423 0.000000
C 6.150000 15.623563 0.000000
C 6.150000 17.044000 0.000000
C 4.920000 17.754141 0.000000
C 4.920000 19.174423 0.000000
C 6.150000 19.884563 0.000000
C 8.610000 0.000000 0.000000
C 7.380000 0.710141 0.000000
C 7.380000 2.130423 0.000000
C 8.610000 2.840563 0.000000
C 8.610000 4.261000 0.000000
C 7.380000 4.971141 0.000000
C 7.380000 6.391423 0.000000
C 8.610000 7.101563 0.000000
C 8.610000 8.522000 0.000000
C 7.380000 9.232141 0.000000
C 7.380000 10.652423 0.000000
C 8.610000 11.362563 0.000000
C 8.610000 12.783000 0.000000
C 7.380000 13.493141 0.000000
C 7.380000 14.913423 0.000000
C 8.610000 15.623563 0.000000
C 8.610000 17.044000 0.000000
C 7.380000 17.754141 0.000000
C 7.380000 19.174423 0.000000
C 8.610000 19.884563 0.000000
C 11.070000 0.000000 0.000000
C 9.840000 0.710141 0.000000
C 9.840000 2.130423 0.000000
C 11.070000 2.840563 0.000000
C 11.070000 4.261000 0.000000
C 9.840000 4.971141 0.000000
C 9.840000 6.391423 0.000000
C 11.070000 7.101563 0.000000
C 11.070000 8.522000 0.000000
C 9.840000 9.232141 0.000000
C 9.840000 10.652423 0.000000
C 11.070000 11.362563 0.000000
C 11.070000 12.783000 0.000000
C 9.840000 13.493141 0.000000
C 9.840000 14.913423 0.000000
C 11.070000 15.623563 0.000000
C 11.070000 17.044000 0.000000
C 9.840000 17.754141 0.000000
C 9.840000 19.174423 0.000000
C 11.070000 19.884563 0.000000
C 4.714263 8.523921 2.009979
C 5.463646 9.754346 2.003790
C 6.837876 9.753555 2.004854
C 7.585594 8.521909 2.011874
C 6.835857 7.291845 2.005689
C 5.462243 7.292537 2.004861
C 3.292253 8.524309 2.026050
C 2.539393 9.732416 2.033965
C 2.539937 7.315501 2.040999
C 9.007466 8.520583 2.029077
C 9.761787 9.727747 2.037389
C 9.758694 7.311003 2.042132
N 1.922723 10.731951 2.025669
N 1.926416 6.314383 2.040117
N 10.379422 10.726644 2.028976
N 10.372297 6.309875 2.038657
H 4.926086 10.701452 2.000000
H 7.376856 10.699728 2.002026
H 7.373566 6.344625 2.002598
H 4.923314 6.346188 2.000983
