18
Lattice="6.690544 0.000000 0.000000 0.000000 25.214265 0.000000 0.000000 0.000000 22.759265" Properties=species:S:1:pos:R:3
C -0.039729 0.329835 0.179181
C 1.168915 -0.475202 -0.388983
O 2.307747 -0.238878 0.327535
C 0.059903 1.787060 -0.265049
H -0.051334 0.266979 1.277494
O 1.115352 -1.188029 -1.378666
H 0.996232 2.223464 0.111169
H 0.047341 1.851743 -1.362911
H -0.783038 2.357606 0.146715
C 3.560278 -0.828986 -0.180146
C 4.768588 -0.024496 0.388596
O 5.907506 -0.260432 -0.328279
C 3.658652 -2.285587 0.265095
H 3.549853 -0.768757 -1.278748
O 4.715056 0.684974 1.380599
H 4.594046 -2.724317 -0.110020
H 2.816213 -2.856659 -0.146269
H 3.644843 -2.350873 1.362686
